8
ethane
C -0.50717151121355 -1.27184120917357 0.00000331911165
C 1.02239150979434 -1.30691879105974 -0.00000332011485
H -0.89497975003337 -0.27901423096124 0.30990926747065
H -0.93485817898623 -2.02230205414299 0.69670487424085
H -0.92282223865471 -1.48549106062672 -1.00681942695220
H 1.43804223172433 -1.09326896399899 1.00681943274169
H 1.45007818227371 -0.55645792902172 -0.69670485686709
H 1.41019975509548 -2.29974576101502 -0.30990928963070
