111

      C -2.04954507139919 0.49346459974284 0.19403708095030
      C -0.68994584664293 0.24498551943875 -0.48728935738284
      H -1.91938928475996 0.26021745455615 1.25855031165228
      C -3.14426501541109 -0.38993518976336 -0.40317206956060
      N -2.28685698583691 1.94767379863413 0.14878941970778
      C -0.27951756876751 -1.22058665005177 -0.36550874084111
      N 0.24097504669724 1.23597051240999 0.07433332522267
      H -0.79817613961669 0.50662260467413 -1.54994979799048
      C -2.73139840250440 -1.86646507169582 -0.30459890356185
      H -3.31426754402753 -0.11157394102816 -1.45104048488576
      H -4.08740996064897 -0.23965147661296 0.13329358281900
      C -1.37237236245536 -2.11751151850859 -0.96740655951936
      H -3.50036441159888 -2.49528484810240 -0.76674625385721
      H -2.67692478831873 -2.15416547391794 0.75385480191594
      H -1.44921617537744 -1.91734894037221 -2.04497106436333
      H -1.08572552070489 -3.16981456558983 -0.85948673907074
      H -0.13020491148699 -1.46885695236768 0.69354276528090
      H 0.66954724487480 -1.39561995215723 -0.88425085333822
      C 1.46008944970184 0.98514467699238 0.39769354812489
      C -3.45450814424032 2.47238300834947 0.00318683222481
      Mn -0.62740577664457 3.00042723327634 0.24981138311896
      Cl -0.77190534903661 2.27052105147490 2.55668552389363
      O 0.94717409770232 3.87889063769865 0.76949369546203
      O -1.52528344714375 4.56769509314170 0.75501905102585
      C -2.80783982424845 4.82121758023799 0.62748585937203
      C -3.75986953640787 3.86533208523123 0.15328097599859
      C -3.27985309595695 6.13034947382499 0.98003712378897
      H -4.30569253403915 1.81943364053180 -0.19958098334289
      C -5.09866363284808 4.24099203805007 -0.07331640048439
      C 2.40005917295061 1.94436165989897 0.90821046986723
      H 1.83433169313173 -0.03637112556795 0.29353084627507
      C 2.10873332863783 3.33656524353963 1.06263835297119
      C 3.14926484875961 4.19561876428366 1.54849799956785
      C 3.67122070870860 1.43860539002233 1.25009588091058
      C -4.60561872832707 6.43509333741244 0.70903643281861
      C -5.54128397814805 5.52849698547268 0.16428488535104
      H -5.77510362299943 3.47954238775536 -0.44905000250600
      C -2.35121862890659 7.13971712191373 1.66334132067180
      C 4.67789462558235 2.25447436615883 1.73243457296332
      H 3.83499049328653 0.37206802842858 1.12313605573798
      C 4.37783744442278 3.62666352141399 1.85690263210696
      C 2.91036151348742 5.70045562415378 1.71518016308150
      C -6.97770079198632 5.98523048128377 -0.09496820690846
      H -4.95298360793980 7.43475978174949 0.94473892775111
      C 6.06482570420256 1.74288253485095 2.12536886797205
      H 5.15981416390186 4.28152009200965 2.22423216944500
      C -1.86964434010808 6.53401792490724 3.00458213575159
      C -3.07700897782200 8.45837761840221 1.98476882685460
      C -1.14472552625358 7.48659578913860 0.76272495082705
      C -7.85288616769135 4.84662340177242 -0.64315267966354
      C -6.96939516417516 7.13739693024225 -1.12404261102867
      C -7.60570187618051 6.49103497803841 1.22364270752792
      C 2.53942859943231 6.33080408864722 0.35147003340888
      C 4.16466266696969 6.43091570602525 2.22744559397163
      C 1.78113064313056 5.93517348180064 2.74345085677705
      C 6.19671942485128 0.22517036797559 1.92600610701894
      C 6.32336504220137 2.06430527402333 3.61486155230123
      C 7.13465911933550 2.44584604839223 1.26066024918145
      H 6.97972138439825 2.22658782615567 0.19841063261595
      H 8.13569349180792 2.10027931172002 1.54390569545958
      H 7.10220740280281 3.53268524604814 1.39061845600487
      H 5.58046178985460 1.57256023594689 4.25119023000150
      H 6.27313806599647 3.14122737756939 3.80473758713604
      H 7.31944463992090 1.71420487889887 3.90912043828194
      H 5.47350076827894 -0.32542835885976 2.53706657152166
      H 7.20027372099028 -0.09675294866989 2.22286828336657
      H 6.05121988503054 -0.05673782942222 0.87712347748801
      H 5.00924700842936 6.33263766517312 1.53500724397903
      H 4.47493587876587 6.06881270407874 3.21386341792396
      H 3.93409070743025 7.49735523722311 2.32222584505330
      H 0.85813947996631 5.44810386681995 2.43598675708472
      H 1.59611883205988 7.01099863310485 2.84637518583010
      H 2.07276768245146 5.54167647700564 3.72354895445304
      H 3.36199034147681 6.20328953933432 -0.36221504683867
      H 2.36102275862487 7.40462201899642 0.48112838840598
      H 1.64107671634069 5.87516839522832 -0.06465639765120
      H -2.72345829093801 6.37564505895787 3.67281663577421
      H -1.17497582928836 7.22765079366384 3.49299588383011
      H -1.36541900120089 5.57845911921942 2.85572229502848
      H -3.93417751366491 8.30219801250051 2.64964406646150
      H -3.42467357855893 8.96643772449778 1.07761713364915
      H -2.37660789413876 9.12854033136797 2.49452668299751
      H -0.56571588586585 6.59930345991454 0.51346683103427
      H -0.49297490713285 8.19630170799128 1.28536746599081
      H -1.48722927395676 7.96049735492584 -0.16382389702834
      H -7.45451709864170 4.45016084269664 -1.58238236773522
      H -8.86353654253283 5.22204729253269 -0.83421954841187
      H -7.93162796674867 4.02120514252091 0.07341081374228
      H -7.62254073277562 5.69322442060897 1.97391298026946
      H -8.63498784699360 6.82324002028751 1.04666047722293
      H -7.04446420275119 7.33487223782684 1.63726927115536
      H -6.55437340053619 6.79989802962478 -2.07878381014698
      H -6.36578076522199 7.98042136264129 -0.77301152619500
      H -7.99003809968693 7.49691091696790 -1.29796440932058
      O -0.58117457718709 3.14840635123511 -1.32876522814175
      C -3.65465162911951 5.55158682325514 -3.03287591760466
      C -2.45911998087859 5.88136721211899 -2.52777694945093
      C -4.12013021748694 4.20307019079305 -3.37124888790066
      H -4.38457193862791 6.34299186426688 -3.20134425367596
      H -1.68960292441784 5.14717912921101 -2.30841396123747
      H -2.22132572604776 6.91415426531028 -2.29632480920601
      C -3.28423624804405 3.07272920174484 -3.32336077727346
      C -5.45944839094449 4.01776250494701 -3.75157175786376
      C -3.77984832806600 1.81217555301830 -3.63833651476025
      H -2.24431275101592 3.18161412634414 -3.03321908971706
      C -5.11887185642819 1.64094202344557 -4.00025880467642
      H -3.11246484386345 0.95425091922413 -3.61091891825824
      C -5.95851314964250 2.75334759601635 -4.05598131498691
      H -6.11541919341662 4.88341492242030 -3.80340449371217
      H -5.49899366110141 0.65353364283191 -4.24642233726737
      H -7.00028167101145 2.63804155947607 -4.34247362306615
